/*--------------------------------*- C++ -*----------------------------------*\
| =========                 |                                                 |
| \\      /  F ield         | OpenFOAM: The Open Source CFD Toolbox           |
|  \\    /   O peration     | Version:  2406                                  |
|   \\  /    A nd           | Website:  www.openfoam.com                      |
|    \\/     M anipulation  |                                                 |
\*---------------------------------------------------------------------------*/
FoamFile
{
    version     2.0;
    format      ascii;
    arch        "LSB;label=32;scalar=64";
    class       polyBoundaryMesh;
    location    "constant/polyMesh";
    object      boundary;
}
// * * * * * * * * * * * * * * * * * * * * * * * * * * * * * * * * * * * * * //

11
(
    aerofoil
    {
        type            wall;
        inGroups        1(wall);
        nFaces          28;
        startFace       3113;
    }
    inlet
    {
        type            patch;
        inGroups        1(freestream);
        nFaces          0;
        startFace       3141;
    }
    outlet
    {
        type            patch;
        inGroups        1(freestream);
        nFaces          0;
        startFace       3141;
    }
    back
    {
        type            empty;
        inGroups        1(empty);
        nFaces          1599;
        startFace       3141;
    }
    front
    {
        type            empty;
        inGroups        1(empty);
        nFaces          1599;
        startFace       4740;
    }
    procBoundary4to0
    {
        type            processor;
        inGroups        1(processor);
        nFaces          40;
        startFace       6339;
        matchTolerance  0.0001;
        transform       unknown;
        myProcNo        4;
        neighbProcNo    0;
    }
    procBoundary4to1
    {
        type            processor;
        inGroups        1(processor);
        nFaces          3;
        startFace       6379;
        matchTolerance  0.0001;
        transform       unknown;
        myProcNo        4;
        neighbProcNo    1;
    }
    procBoundary4to2
    {
        type            processor;
        inGroups        1(processor);
        nFaces          26;
        startFace       6382;
        matchTolerance  0.0001;
        transform       unknown;
        myProcNo        4;
        neighbProcNo    2;
    }
    procBoundary4to3
    {
        type            processor;
        inGroups        1(processor);
        nFaces          42;
        startFace       6408;
        matchTolerance  0.0001;
        transform       unknown;
        myProcNo        4;
        neighbProcNo    3;
    }
    procBoundary4to6
    {
        type            processor;
        inGroups        1(processor);
        nFaces          30;
        startFace       6450;
        matchTolerance  0.0001;
        transform       unknown;
        myProcNo        4;
        neighbProcNo    6;
    }
    procBoundary4to7
    {
        type            processor;
        inGroups        1(processor);
        nFaces          1;
        startFace       6480;
        matchTolerance  0.0001;
        transform       unknown;
        myProcNo        4;
        neighbProcNo    7;
    }
)

// ************************************************************************* //
