/*--------------------------------*- C++ -*----------------------------------*\
| =========                 |                                                 |
| \\      /  F ield         | OpenFOAM: The Open Source CFD Toolbox           |
|  \\    /   O peration     | Version:  2406                                  |
|   \\  /    A nd           | Website:  www.openfoam.com                      |
|    \\/     M anipulation  |                                                 |
\*---------------------------------------------------------------------------*/
FoamFile
{
    version     2.0;
    format      ascii;
    arch        "LSB;label=32;scalar=64";
    class       polyBoundaryMesh;
    location    "constant/polyMesh";
    object      boundary;
}
// * * * * * * * * * * * * * * * * * * * * * * * * * * * * * * * * * * * * * //

8
(
    aerofoil
    {
        type            wall;
        inGroups        1(wall);
        nFaces          0;
        startFace       3102;
    }
    inlet
    {
        type            patch;
        inGroups        1(freestream);
        nFaces          43;
        startFace       3102;
    }
    outlet
    {
        type            patch;
        inGroups        1(freestream);
        nFaces          0;
        startFace       3145;
    }
    back
    {
        type            empty;
        inGroups        1(empty);
        nFaces          1591;
        startFace       3145;
    }
    front
    {
        type            empty;
        inGroups        1(empty);
        nFaces          1591;
        startFace       4736;
    }
    procBoundary3to1
    {
        type            processor;
        inGroups        1(processor);
        nFaces          37;
        startFace       6327;
        matchTolerance  0.0001;
        transform       unknown;
        myProcNo        3;
        neighbProcNo    1;
    }
    procBoundary3to2
    {
        type            processor;
        inGroups        1(processor);
        nFaces          38;
        startFace       6364;
        matchTolerance  0.0001;
        transform       unknown;
        myProcNo        3;
        neighbProcNo    2;
    }
    procBoundary3to4
    {
        type            processor;
        inGroups        1(processor);
        nFaces          42;
        startFace       6402;
        matchTolerance  0.0001;
        transform       unknown;
        myProcNo        3;
        neighbProcNo    4;
    }
)

// ************************************************************************* //
