/*--------------------------------*- C++ -*----------------------------------*\
| =========                 |                                                 |
| \\      /  F ield         | OpenFOAM: The Open Source CFD Toolbox           |
|  \\    /   O peration     | Version:  2406                                  |
|   \\  /    A nd           | Website:  www.openfoam.com                      |
|    \\/     M anipulation  |                                                 |
\*---------------------------------------------------------------------------*/
FoamFile
{
    version     2.0;
    format      ascii;
    arch        "LSB;label=32;scalar=64";
    class       polyBoundaryMesh;
    location    "constant/polyMesh";
    object      boundary;
}
// * * * * * * * * * * * * * * * * * * * * * * * * * * * * * * * * * * * * * //

9
(
    aerofoil
    {
        type            wall;
        inGroups        1(wall);
        nFaces          40;
        startFace       3120;
    }
    inlet
    {
        type            patch;
        inGroups        1(freestream);
        nFaces          0;
        startFace       3160;
    }
    outlet
    {
        type            patch;
        inGroups        1(freestream);
        nFaces          0;
        startFace       3160;
    }
    back
    {
        type            empty;
        inGroups        1(empty);
        nFaces          1600;
        startFace       3160;
    }
    front
    {
        type            empty;
        inGroups        1(empty);
        nFaces          1600;
        startFace       4760;
    }
    procBoundary0to1
    {
        type            processor;
        inGroups        1(processor);
        nFaces          40;
        startFace       6360;
        matchTolerance  0.0001;
        transform       unknown;
        myProcNo        0;
        neighbProcNo    1;
    }
    procBoundary0to4
    {
        type            processor;
        inGroups        1(processor);
        nFaces          40;
        startFace       6400;
        matchTolerance  0.0001;
        transform       unknown;
        myProcNo        0;
        neighbProcNo    4;
    }
    procBoundary0to7
    {
        type            processor;
        inGroups        1(processor);
        nFaces          27;
        startFace       6440;
        matchTolerance  0.0001;
        transform       unknown;
        myProcNo        0;
        neighbProcNo    7;
    }
    procBoundary0to9
    {
        type            processor;
        inGroups        1(processor);
        nFaces          13;
        startFace       6467;
        matchTolerance  0.0001;
        transform       unknown;
        myProcNo        0;
        neighbProcNo    9;
    }
)

// ************************************************************************* //
