/*--------------------------------*- C++ -*----------------------------------*\
| =========                 |                                                 |
| \\      /  F ield         | OpenFOAM: The Open Source CFD Toolbox           |
|  \\    /   O peration     | Version:  2406                                  |
|   \\  /    A nd           | Website:  www.openfoam.com                      |
|    \\/     M anipulation  |                                                 |
\*---------------------------------------------------------------------------*/
FoamFile
{
    version     2.0;
    format      ascii;
    arch        "LSB;label=32;scalar=64";
    class       polyBoundaryMesh;
    location    "constant/polyMesh";
    object      boundary;
}
// * * * * * * * * * * * * * * * * * * * * * * * * * * * * * * * * * * * * * //

7
(
    aerofoil
    {
        type            wall;
        inGroups        1(wall);
        nFaces          0;
        startFace       3118;
    }
    inlet
    {
        type            patch;
        inGroups        1(freestream);
        nFaces          32;
        startFace       3118;
    }
    outlet
    {
        type            patch;
        inGroups        1(freestream);
        nFaces          50;
        startFace       3150;
    }
    back
    {
        type            empty;
        inGroups        1(empty);
        nFaces          1600;
        startFace       3200;
    }
    front
    {
        type            empty;
        inGroups        1(empty);
        nFaces          1600;
        startFace       4800;
    }
    procBoundary5to6
    {
        type            processor;
        inGroups        1(processor);
        nFaces          32;
        startFace       6400;
        matchTolerance  0.0001;
        transform       unknown;
        myProcNo        5;
        neighbProcNo    6;
    }
    procBoundary5to8
    {
        type            processor;
        inGroups        1(processor);
        nFaces          50;
        startFace       6432;
        matchTolerance  0.0001;
        transform       unknown;
        myProcNo        5;
        neighbProcNo    8;
    }
)

// ************************************************************************* //
