/*--------------------------------*- C++ -*----------------------------------*\
| =========                 |                                                 |
| \\      /  F ield         | OpenFOAM: The Open Source CFD Toolbox           |
|  \\    /   O peration     | Version:  2406                                  |
|   \\  /    A nd           | Website:  www.openfoam.com                      |
|    \\/     M anipulation  |                                                 |
\*---------------------------------------------------------------------------*/
FoamFile
{
    version     2.0;
    format      ascii;
    arch        "LSB;label=32;scalar=64";
    class       polyBoundaryMesh;
    location    "constant/polyMesh";
    object      boundary;
}
// * * * * * * * * * * * * * * * * * * * * * * * * * * * * * * * * * * * * * //

9
(
    aerofoil
    {
        type            wall;
        inGroups        1(wall);
        nFaces          0;
        startFace       3097;
    }
    inlet
    {
        type            patch;
        inGroups        1(freestream);
        nFaces          30;
        startFace       3097;
    }
    outlet
    {
        type            patch;
        inGroups        1(freestream);
        nFaces          0;
        startFace       3127;
    }
    back
    {
        type            empty;
        inGroups        1(empty);
        nFaces          1590;
        startFace       3127;
    }
    front
    {
        type            empty;
        inGroups        1(empty);
        nFaces          1590;
        startFace       4717;
    }
    procBoundary9to0
    {
        type            processor;
        inGroups        1(processor);
        nFaces          13;
        startFace       6307;
        matchTolerance  0.0001;
        transform       unknown;
        myProcNo        9;
        neighbProcNo    0;
    }
    procBoundary9to1
    {
        type            processor;
        inGroups        1(processor);
        nFaces          40;
        startFace       6320;
        matchTolerance  0.0001;
        transform       unknown;
        myProcNo        9;
        neighbProcNo    1;
    }
    procBoundary9to7
    {
        type            processor;
        inGroups        1(processor);
        nFaces          30;
        startFace       6360;
        matchTolerance  0.0001;
        transform       unknown;
        myProcNo        9;
        neighbProcNo    7;
    }
    procBoundary9to8
    {
        type            processor;
        inGroups        1(processor);
        nFaces          53;
        startFace       6390;
        matchTolerance  0.0001;
        transform       unknown;
        myProcNo        9;
        neighbProcNo    8;
    }
)

// ************************************************************************* //
