/*--------------------------------*- C++ -*----------------------------------*\
| =========                 |                                                 |
| \\      /  F ield         | OpenFOAM: The Open Source CFD Toolbox           |
|  \\    /   O peration     | Version:  2406                                  |
|   \\  /    A nd           | Website:  www.openfoam.com                      |
|    \\/     M anipulation  |                                                 |
\*---------------------------------------------------------------------------*/
FoamFile
{
    version     2.0;
    format      ascii;
    arch        "LSB;label=32;scalar=64";
    class       polyBoundaryMesh;
    location    "constant/polyMesh";
    object      boundary;
}
// * * * * * * * * * * * * * * * * * * * * * * * * * * * * * * * * * * * * * //

8
(
    aerofoil
    {
        type            wall;
        inGroups        1(wall);
        nFaces          0;
        startFace       3113;
    }
    inlet
    {
        type            patch;
        inGroups        1(freestream);
        nFaces          25;
        startFace       3113;
    }
    outlet
    {
        type            patch;
        inGroups        1(freestream);
        nFaces          63;
        startFace       3138;
    }
    back
    {
        type            empty;
        inGroups        1(empty);
        nFaces          1601;
        startFace       3201;
    }
    front
    {
        type            empty;
        inGroups        1(empty);
        nFaces          1601;
        startFace       4802;
    }
    procBoundary2to3
    {
        type            processor;
        inGroups        1(processor);
        nFaces          38;
        startFace       6403;
        matchTolerance  0.0001;
        transform       unknown;
        myProcNo        2;
        neighbProcNo    3;
    }
    procBoundary2to4
    {
        type            processor;
        inGroups        1(processor);
        nFaces          26;
        startFace       6441;
        matchTolerance  0.0001;
        transform       unknown;
        myProcNo        2;
        neighbProcNo    4;
    }
    procBoundary2to6
    {
        type            processor;
        inGroups        1(processor);
        nFaces          26;
        startFace       6467;
        matchTolerance  0.0001;
        transform       unknown;
        myProcNo        2;
        neighbProcNo    6;
    }
)

// ************************************************************************* //
