/*--------------------------------*- C++ -*----------------------------------*\
| =========                 |                                                 |
| \\      /  F ield         | OpenFOAM: The Open Source CFD Toolbox           |
|  \\    /   O peration     | Version:  2406                                  |
|   \\  /    A nd           | Website:  www.openfoam.com                      |
|    \\/     M anipulation  |                                                 |
\*---------------------------------------------------------------------------*/
FoamFile
{
    version     2.0;
    format      ascii;
    arch        "LSB;label=32;scalar=64";
    class       polyBoundaryMesh;
    location    "constant/polyMesh";
    object      boundary;
}
// * * * * * * * * * * * * * * * * * * * * * * * * * * * * * * * * * * * * * //

10
(
    aerofoil
    {
        type            wall;
        inGroups        1(wall);
        nFaces          52;
        startFace       3139;
    }
    inlet
    {
        type            patch;
        inGroups        1(freestream);
        nFaces          0;
        startFace       3191;
    }
    outlet
    {
        type            patch;
        inGroups        1(freestream);
        nFaces          0;
        startFace       3191;
    }
    back
    {
        type            empty;
        inGroups        1(empty);
        nFaces          1613;
        startFace       3191;
    }
    front
    {
        type            empty;
        inGroups        1(empty);
        nFaces          1613;
        startFace       4804;
    }
    procBoundary7to0
    {
        type            processor;
        inGroups        1(processor);
        nFaces          27;
        startFace       6417;
        matchTolerance  0.0001;
        transform       unknown;
        myProcNo        7;
        neighbProcNo    0;
    }
    procBoundary7to4
    {
        type            processor;
        inGroups        1(processor);
        nFaces          1;
        startFace       6444;
        matchTolerance  0.0001;
        transform       unknown;
        myProcNo        7;
        neighbProcNo    4;
    }
    procBoundary7to6
    {
        type            processor;
        inGroups        1(processor);
        nFaces          34;
        startFace       6445;
        matchTolerance  0.0001;
        transform       unknown;
        myProcNo        7;
        neighbProcNo    6;
    }
    procBoundary7to8
    {
        type            processor;
        inGroups        1(processor);
        nFaces          30;
        startFace       6479;
        matchTolerance  0.0001;
        transform       unknown;
        myProcNo        7;
        neighbProcNo    8;
    }
    procBoundary7to9
    {
        type            processor;
        inGroups        1(processor);
        nFaces          30;
        startFace       6509;
        matchTolerance  0.0001;
        transform       unknown;
        myProcNo        7;
        neighbProcNo    9;
    }
)

// ************************************************************************* //
