/*--------------------------------*- C++ -*----------------------------------*\
| =========                 |                                                 |
| \\      /  F ield         | OpenFOAM: The Open Source CFD Toolbox           |
|  \\    /   O peration     | Version:  2406                                  |
|   \\  /    A nd           | Website:  www.openfoam.com                      |
|    \\/     M anipulation  |                                                 |
\*---------------------------------------------------------------------------*/
FoamFile
{
    version     2.0;
    format      ascii;
    arch        "LSB;label=32;scalar=64";
    class       polyBoundaryMesh;
    location    "constant/polyMesh";
    object      boundary;
}
// * * * * * * * * * * * * * * * * * * * * * * * * * * * * * * * * * * * * * //

10
(
    aerofoil
    {
        type            wall;
        inGroups        1(wall);
        nFaces          0;
        startFace       3146;
    }
    inlet
    {
        type            patch;
        inGroups        1(freestream);
        nFaces          0;
        startFace       3146;
    }
    outlet
    {
        type            patch;
        inGroups        1(freestream);
        nFaces          47;
        startFace       3146;
    }
    back
    {
        type            empty;
        inGroups        1(empty);
        nFaces          1616;
        startFace       3193;
    }
    front
    {
        type            empty;
        inGroups        1(empty);
        nFaces          1616;
        startFace       4809;
    }
    procBoundary6to2
    {
        type            processor;
        inGroups        1(processor);
        nFaces          26;
        startFace       6425;
        matchTolerance  0.0001;
        transform       unknown;
        myProcNo        6;
        neighbProcNo    2;
    }
    procBoundary6to4
    {
        type            processor;
        inGroups        1(processor);
        nFaces          30;
        startFace       6451;
        matchTolerance  0.0001;
        transform       unknown;
        myProcNo        6;
        neighbProcNo    4;
    }
    procBoundary6to5
    {
        type            processor;
        inGroups        1(processor);
        nFaces          32;
        startFace       6481;
        matchTolerance  0.0001;
        transform       unknown;
        myProcNo        6;
        neighbProcNo    5;
    }
    procBoundary6to7
    {
        type            processor;
        inGroups        1(processor);
        nFaces          34;
        startFace       6513;
        matchTolerance  0.0001;
        transform       unknown;
        myProcNo        6;
        neighbProcNo    7;
    }
    procBoundary6to8
    {
        type            processor;
        inGroups        1(processor);
        nFaces          3;
        startFace       6547;
        matchTolerance  0.0001;
        transform       unknown;
        myProcNo        6;
        neighbProcNo    8;
    }
)

// ************************************************************************* //
